/*--------------------------------*- C++ -*----------------------------------*\
| =========                 |                                                 |
| \\      /  F ield         | OpenFOAM: The Open Source CFD Toolbox           |
|  \\    /   O peration     | Version:  v2012                                 |
|   \\  /    A nd           | Website:  www.openfoam.com                      |
|    \\/     M anipulation  |                                                 |
\*---------------------------------------------------------------------------*/
FoamFile
{
    version     2.0;
    format      ascii;
    class       polyBoundaryMesh;
    location    "constant/polyMesh";
    object      boundary;
}
// * * * * * * * * * * * * * * * * * * * * * * * * * * * * * * * * * * * * * //

7
(
    frontback
    {
        type            empty;
        inGroups        1(empty);
        nFaces          71382;
        startFace       53011;
    }
    inlet
    {
        type            patch;
        physicalType    patch;
        nFaces          0;
        startFace       124393;
    }
    topbottom
    {
        type            patch;
        physicalType    patch;
        nFaces          110;
        startFace       124393;
    }
    outlet
    {
        type            patch;
        physicalType    patch;
        nFaces          32;
        startFace       124503;
    }
    walls
    {
        type            wall;
        inGroups        1(wall);
        nFaces          541;
        startFace       124535;
    }
    procBoundary1to0
    {
        type            processor;
        inGroups        1(processor);
        nFaces          160;
        startFace       125076;
        matchTolerance  0.0001;
        transform       unknown;
        myProcNo        1;
        neighbProcNo    0;
    }
    procBoundary1to3
    {
        type            processor;
        inGroups        1(processor);
        nFaces          208;
        startFace       125236;
        matchTolerance  0.0001;
        transform       unknown;
        myProcNo        1;
        neighbProcNo    3;
    }
)

// ************************************************************************* //
