/*--------------------------------*- C++ -*----------------------------------*\
| =========                 |                                                 |
| \\      /  F ield         | OpenFOAM: The Open Source CFD Toolbox           |
|  \\    /   O peration     | Version:  v2012                                 |
|   \\  /    A nd           | Website:  www.openfoam.com                      |
|    \\/     M anipulation  |                                                 |
\*---------------------------------------------------------------------------*/
FoamFile
{
    version     2.0;
    format      ascii;
    class       polyBoundaryMesh;
    location    "constant/polyMesh";
    object      boundary;
}
// * * * * * * * * * * * * * * * * * * * * * * * * * * * * * * * * * * * * * //

7
(
    frontback
    {
        type            empty;
        inGroups        1(empty);
        nFaces          106016;
        startFace       78975;
    }
    topbottom
    {
        type            patch;
        physicalType    patch;
        nFaces          192;
        startFace       184991;
    }
    outlet
    {
        type            patch;
        physicalType    patch;
        nFaces          69;
        startFace       185183;
    }
    inlet
    {
        type            patch;
        physicalType    patch;
        nFaces          0;
        startFace       185252;
    }
    walls
    {
        type            wall;
        inGroups        1(wall);
        nFaces          168;
        startFace       185252;
    }
    procBoundary3to1
    {
        type            processor;
        inGroups        1(processor);
        nFaces          441;
        startFace       185420;
        matchTolerance  0.0001;
        transform       unknown;
        myProcNo        3;
        neighbProcNo    1;
    }
    procBoundary3to2
    {
        type            processor;
        inGroups        1(processor);
        nFaces          204;
        startFace       185861;
        matchTolerance  0.0001;
        transform       unknown;
        myProcNo        3;
        neighbProcNo    2;
    }
)

// ************************************************************************* //
