/*--------------------------------*- C++ -*----------------------------------*\
| =========                 |                                                 |
| \\      /  F ield         | OpenFOAM: The Open Source CFD Toolbox           |
|  \\    /   O peration     | Version:  v2012                                 |
|   \\  /    A nd           | Website:  www.openfoam.com                      |
|    \\/     M anipulation  |                                                 |
\*---------------------------------------------------------------------------*/
FoamFile
{
    version     2.0;
    format      ascii;
    class       polyBoundaryMesh;
    location    "constant/polyMesh";
    object      boundary;
}
// * * * * * * * * * * * * * * * * * * * * * * * * * * * * * * * * * * * * * //

7
(
    frontback
    {
        type            empty;
        inGroups        1(empty);
        nFaces          74380;
        startFace       55332;
    }
    topbottom
    {
        type            patch;
        physicalType    patch;
        nFaces          161;
        startFace       129712;
    }
    outlet
    {
        type            patch;
        physicalType    patch;
        nFaces          58;
        startFace       129873;
    }
    inlet
    {
        type            patch;
        physicalType    patch;
        nFaces          0;
        startFace       129931;
    }
    walls
    {
        type            wall;
        inGroups        1(wall);
        nFaces          147;
        startFace       129931;
    }
    procBoundary3to1
    {
        type            processor;
        inGroups        1(processor);
        nFaces          372;
        startFace       130078;
        matchTolerance  0.0001;
        transform       unknown;
        myProcNo        3;
        neighbProcNo    1;
    }
    procBoundary3to2
    {
        type            processor;
        inGroups        1(processor);
        nFaces          168;
        startFace       130450;
        matchTolerance  0.0001;
        transform       unknown;
        myProcNo        3;
        neighbProcNo    2;
    }
)

// ************************************************************************* //
