/*--------------------------------*- C++ -*----------------------------------*\
| =========                 |                                                 |
| \\      /  F ield         | OpenFOAM: The Open Source CFD Toolbox           |
|  \\    /   O peration     | Version:  v2012                                 |
|   \\  /    A nd           | Website:  www.openfoam.com                      |
|    \\/     M anipulation  |                                                 |
\*---------------------------------------------------------------------------*/
FoamFile
{
    version     2.0;
    format      ascii;
    class       polyBoundaryMesh;
    location    "constant/polyMesh";
    object      boundary;
}
// * * * * * * * * * * * * * * * * * * * * * * * * * * * * * * * * * * * * * //

8
(
    frontback
    {
        type            empty;
        inGroups        1(empty);
        nFaces          109186;
        startFace       81198;
    }
    topbottom
    {
        type            patch;
        physicalType    patch;
        nFaces          75;
        startFace       190384;
    }
    outlet
    {
        type            patch;
        physicalType    patch;
        nFaces          0;
        startFace       190459;
    }
    inlet
    {
        type            patch;
        physicalType    patch;
        nFaces          69;
        startFace       190459;
    }
    walls
    {
        type            wall;
        inGroups        1(wall);
        nFaces          552;
        startFace       190528;
    }
    procBoundary2to0
    {
        type            processor;
        inGroups        1(processor);
        nFaces          482;
        startFace       191080;
        matchTolerance  0.0001;
        transform       unknown;
        myProcNo        2;
        neighbProcNo    0;
    }
    procBoundary2to1
    {
        type            processor;
        inGroups        1(processor);
        nFaces          1;
        startFace       191562;
        matchTolerance  0.0001;
        transform       unknown;
        myProcNo        2;
        neighbProcNo    1;
    }
    procBoundary2to3
    {
        type            processor;
        inGroups        1(processor);
        nFaces          204;
        startFace       191563;
        matchTolerance  0.0001;
        transform       unknown;
        myProcNo        2;
        neighbProcNo    3;
    }
)

// ************************************************************************* //
