/*--------------------------------*- C++ -*----------------------------------*\
| =========                 |                                                 |
| \\      /  F ield         | OpenFOAM: The Open Source CFD Toolbox           |
|  \\    /   O peration     | Version:  v2012                                 |
|   \\  /    A nd           | Website:  www.openfoam.com                      |
|    \\/     M anipulation  |                                                 |
\*---------------------------------------------------------------------------*/
FoamFile
{
    version     2.0;
    format      ascii;
    class       polyBoundaryMesh;
    location    "constant/polyMesh";
    object      boundary;
}
// * * * * * * * * * * * * * * * * * * * * * * * * * * * * * * * * * * * * * //

7
(
    frontback
    {
        type            empty;
        inGroups        1(empty);
        nFaces          77422;
        startFace       57605;
    }
    inlet
    {
        type            patch;
        physicalType    patch;
        nFaces          0;
        startFace       135027;
    }
    topbottom
    {
        type            patch;
        physicalType    patch;
        nFaces          78;
        startFace       135027;
    }
    outlet
    {
        type            patch;
        physicalType    patch;
        nFaces          25;
        startFace       135105;
    }
    walls
    {
        type            wall;
        inGroups        1(wall);
        nFaces          433;
        startFace       135130;
    }
    procBoundary3to1
    {
        type            processor;
        inGroups        1(processor);
        nFaces          208;
        startFace       135563;
        matchTolerance  0.0001;
        transform       unknown;
        myProcNo        3;
        neighbProcNo    1;
    }
    procBoundary3to2
    {
        type            processor;
        inGroups        1(processor);
        nFaces          179;
        startFace       135771;
        matchTolerance  0.0001;
        transform       unknown;
        myProcNo        3;
        neighbProcNo    2;
    }
)

// ************************************************************************* //
