/*--------------------------------*- C++ -*----------------------------------*\
| =========                 |                                                 |
| \\      /  F ield         | OpenFOAM: The Open Source CFD Toolbox           |
|  \\    /   O peration     | Version:  v2012                                 |
|   \\  /    A nd           | Website:  www.openfoam.com                      |
|    \\/     M anipulation  |                                                 |
\*---------------------------------------------------------------------------*/
FoamFile
{
    version     2.0;
    format      ascii;
    class       polyBoundaryMesh;
    location    "constant/polyMesh";
    object      boundary;
}
// * * * * * * * * * * * * * * * * * * * * * * * * * * * * * * * * * * * * * //

8
(
    frontback
    {
        type            empty;
        inGroups        1(empty);
        nFaces          55604;
        startFace       41211;
    }
    topbottom
    {
        type            patch;
        physicalType    patch;
        nFaces          54;
        startFace       96815;
    }
    outlet
    {
        type            patch;
        physicalType    patch;
        nFaces          0;
        startFace       96869;
    }
    inlet
    {
        type            patch;
        physicalType    patch;
        nFaces          49;
        startFace       96869;
    }
    walls
    {
        type            wall;
        inGroups        1(wall);
        nFaces          405;
        startFace       96918;
    }
    procBoundary2to0
    {
        type            processor;
        inGroups        1(processor);
        nFaces          328;
        startFace       97323;
        matchTolerance  0.0001;
        transform       unknown;
        myProcNo        2;
        neighbProcNo    0;
    }
    procBoundary2to1
    {
        type            processor;
        inGroups        1(processor);
        nFaces          1;
        startFace       97651;
        matchTolerance  0.0001;
        transform       unknown;
        myProcNo        2;
        neighbProcNo    1;
    }
    procBoundary2to3
    {
        type            processor;
        inGroups        1(processor);
        nFaces          147;
        startFace       97652;
        matchTolerance  0.0001;
        transform       unknown;
        myProcNo        2;
        neighbProcNo    3;
    }
)

// ************************************************************************* //
