/*--------------------------------*- C++ -*----------------------------------*\
| =========                 |                                                 |
| \\      /  F ield         | OpenFOAM: The Open Source CFD Toolbox           |
|  \\    /   O peration     | Version:  v2012                                 |
|   \\  /    A nd           | Website:  www.openfoam.com                      |
|    \\/     M anipulation  |                                                 |
\*---------------------------------------------------------------------------*/
FoamFile
{
    version     2.0;
    format      ascii;
    class       polyBoundaryMesh;
    location    "constant/polyMesh";
    object      boundary;
}
// * * * * * * * * * * * * * * * * * * * * * * * * * * * * * * * * * * * * * //

7
(
    frontback
    {
        type            empty;
        inGroups        1(empty);
        nFaces          77424;
        startFace       57541;
    }
    inlet
    {
        type            patch;
        physicalType    patch;
        nFaces          37;
        startFace       134965;
    }
    topbottom
    {
        type            patch;
        physicalType    patch;
        nFaces          37;
        startFace       135002;
    }
    outlet
    {
        type            patch;
        physicalType    patch;
        nFaces          0;
        startFace       135039;
    }
    walls
    {
        type            wall;
        inGroups        1(wall);
        nFaces          692;
        startFace       135039;
    }
    procBoundary0to1
    {
        type            processor;
        inGroups        1(processor);
        nFaces          160;
        startFace       135731;
        matchTolerance  0.0001;
        transform       unknown;
        myProcNo        0;
        neighbProcNo    1;
    }
    procBoundary0to2
    {
        type            processor;
        inGroups        1(processor);
        nFaces          128;
        startFace       135891;
        matchTolerance  0.0001;
        transform       unknown;
        myProcNo        0;
        neighbProcNo    2;
    }
)

// ************************************************************************* //
