/*--------------------------------*- C++ -*----------------------------------*\
| =========                 |                                                 |
| \\      /  F ield         | OpenFOAM: The Open Source CFD Toolbox           |
|  \\    /   O peration     | Version:  v2012                                 |
|   \\  /    A nd           | Website:  www.openfoam.com                      |
|    \\/     M anipulation  |                                                 |
\*---------------------------------------------------------------------------*/
FoamFile
{
    version     2.0;
    format      ascii;
    class       polyBoundaryMesh;
    location    "constant/polyMesh";
    object      boundary;
}
// * * * * * * * * * * * * * * * * * * * * * * * * * * * * * * * * * * * * * //

7
(
    frontback
    {
        type            empty;
        inGroups        1(empty);
        nFaces          75618;
        startFace       56329;
    }
    topbottom
    {
        type            patch;
        physicalType    patch;
        nFaces          161;
        startFace       131947;
    }
    outlet
    {
        type            patch;
        physicalType    patch;
        nFaces          54;
        startFace       132108;
    }
    inlet
    {
        type            patch;
        physicalType    patch;
        nFaces          0;
        startFace       132162;
    }
    walls
    {
        type            wall;
        inGroups        1(wall);
        nFaces          0;
        startFace       132162;
    }
    procBoundary1to0
    {
        type            processor;
        inGroups        1(processor);
        nFaces          182;
        startFace       132162;
        matchTolerance  0.0001;
        transform       unknown;
        myProcNo        1;
        neighbProcNo    0;
    }
    procBoundary1to3
    {
        type            processor;
        inGroups        1(processor);
        nFaces          372;
        startFace       132344;
        matchTolerance  0.0001;
        transform       unknown;
        myProcNo        1;
        neighbProcNo    3;
    }
)

// ************************************************************************* //
