/*--------------------------------*- C++ -*----------------------------------*\
| =========                 |                                                 |
| \\      /  F ield         | OpenFOAM: The Open Source CFD Toolbox           |
|  \\    /   O peration     | Version:  v2012                                 |
|   \\  /    A nd           | Website:  www.openfoam.com                      |
|    \\/     M anipulation  |                                                 |
\*---------------------------------------------------------------------------*/
FoamFile
{
    version     2.0;
    format      ascii;
    class       polyBoundaryMesh;
    location    "constant/polyMesh";
    object      boundary;
}
// * * * * * * * * * * * * * * * * * * * * * * * * * * * * * * * * * * * * * //

7
(
    frontback
    {
        type            empty;
        inGroups        1(empty);
        nFaces          106016;
        startFace       79099;
    }
    topbottom
    {
        type            patch;
        physicalType    patch;
        nFaces          75;
        startFace       185115;
    }
    outlet
    {
        type            patch;
        physicalType    patch;
        nFaces          0;
        startFace       185190;
    }
    inlet
    {
        type            patch;
        physicalType    patch;
        nFaces          65;
        startFace       185190;
    }
    walls
    {
        type            wall;
        inGroups        1(wall);
        nFaces          0;
        startFace       185255;
    }
    procBoundary0to1
    {
        type            processor;
        inGroups        1(processor);
        nFaces          204;
        startFace       185255;
        matchTolerance  0.0001;
        transform       unknown;
        myProcNo        0;
        neighbProcNo    1;
    }
    procBoundary0to2
    {
        type            processor;
        inGroups        1(processor);
        nFaces          482;
        startFace       185459;
        matchTolerance  0.0001;
        transform       unknown;
        myProcNo        0;
        neighbProcNo    2;
    }
)

// ************************************************************************* //
